108

Al  0.0  0.0  0.0
Al  1.428  1.428  0.0
Al  1.428  0.0  1.428
Al  0.0  1.428  1.428
Al  2.856  0.0  0.0
Al  4.284  1.428  0.0
Al  4.284  0.0  1.428
Al  2.856  1.428  1.428
Al  5.712  0.0  0.0
Al  7.14  1.428  0.0
Al  7.14  0.0  1.428
Al  5.712  1.428  1.428
Al  0.0  2.856  0.0
Al  1.428  4.284  0.0
Al  1.428  2.856  1.428
Al  0.0  4.284  1.428
Al  2.856  2.856  0.0
Al  4.284  4.284  0.0
Al  4.284  2.856  1.428
Al  2.856  4.284  1.428
Al  5.712  2.856  0.0
Al  7.14  4.284  0.0
Al  7.14  2.856  1.428
Al  5.712  4.284  1.428
Al  0.0  5.712  0.0
Al  1.428  7.14  0.0
Al  1.428  5.712  1.428
Al  0.0  7.14  1.428
Al  2.856  5.712  0.0
Al  4.284  7.14  0.0
Al  4.284  5.712  1.428
Al  2.856  7.14  1.428
Al  5.712  5.712  0.0
Al  7.14  7.14  0.0
Al  7.14  5.712  1.428
Al  5.712  7.14  1.428
Al  0.0  0.0  2.856
Al  1.428  1.428  2.856
Al  1.428  0.0  4.284
Al  0.0  1.428  4.284
Al  2.856  0.0  2.856
Al  4.284  1.428  2.856
Al  4.284  0.0  4.284
Al  2.856  1.428  4.284
Al  5.712  0.0  2.856
Al  7.14  1.428  2.856
Al  7.14  0.0  4.284
Al  5.712  1.428  4.284
Al  0.0  2.856  2.856
Al  1.428  4.284  2.856
Al  1.428  2.856  4.284
Al  0.0  4.284  4.284
Al  2.856  2.856  2.856
Al  4.284  4.284  2.856
Al  4.284  2.856  4.284
Al  2.856  4.284  4.284
Al  5.712  2.856  2.856
Al  7.14  4.284  2.856
Al  7.14  2.856  4.284
Al  5.712  4.284  4.284
Al  0.0  5.712  2.856
Al  1.428  7.14  2.856
Al  1.428  5.712  4.284
Al  0.0  7.14  4.284
Al  2.856  5.712  2.856
Al  4.284  7.14  2.856
Al  4.284  5.712  4.284
Al  2.856  7.14  4.284
Al  5.712  5.712  2.856
Al  7.14  7.14  2.856
Al  7.14  5.712  4.284
Al  5.712  7.14  4.284
Al  0.0  0.0  5.712
Al  1.428  1.428  5.712
Al  1.428  0.0  7.14
Al  0.0  1.428  7.14
Al  2.856  0.0  5.712
Al  4.284  1.428  5.712
Al  4.284  0.0  7.14
Al  2.856  1.428  7.14
Al  5.712  0.0  5.712
Al  7.14  1.428  5.712
Al  7.14  0.0  7.14
Al  5.712  1.428  7.14
Al  0.0  2.856  5.712
Al  1.428  4.284  5.712
Al  1.428  2.856  7.14
Al  0.0  4.284  7.14
Al  2.856  2.856  5.712
Al  4.284  4.284  5.712
Al  4.284  2.856  7.14
Al  2.856  4.284  7.14
Al  5.712  2.856  5.712
Al  7.14  4.284  5.712
Al  7.14  2.856  7.14
Al  5.712  4.284  7.14
Al  0.0  5.712  5.712
Al  1.428  7.14  5.712
Al  1.428  5.712  7.14
Al  0.0  7.14  7.14
Al  2.856  5.712  5.712
Al  4.284  7.14  5.712
Al  4.284  5.712  7.14
Al  2.856  7.14  7.14
Al  5.712  5.712  5.712
Al  7.14  7.14  5.712
Al  7.14  5.712  7.14
Al  5.712  7.14  7.14
